PCB_Electronic_Lab_v0
*SPICE Netlist generated by Advanced Sim server on 21.09.2018 07:17:24

*Schematic Netlist:

.SAVE 0


*Selected Circuit Analyses:
.TRAN 2E-8 5E-6 0 2E-8
.OP

.END
